ac_opf/testcases/nesta_case29_edin__api.m
%%%%%%%%%%%%%%%%%%%%%%%%%%%%%%%%%%%%%%%%%%%%%%%%%%%%%%%%%%%%%%%%%%%%%%%%%%%
%%%%                                                                  %%%%%
%%%%      NICTA Energy System Test Case Archive (NESTA) - v0.7.0      %%%%%
%%%%            Optimal Power Flow - Active Power Increase            %%%%%
%%%%                         05 - June - 2017                         %%%%%
%%%%                                                                  %%%%%
%%%%%%%%%%%%%%%%%%%%%%%%%%%%%%%%%%%%%%%%%%%%%%%%%%%%%%%%%%%%%%%%%%%%%%%%%%%
function mpc = nesta_case29_edin__api
mpc.version = '2';
mpc.baseMVA = 100.0;

%% area data
%	area	refbus
mpc.areas = [
	1	 1;
];

%% bus data
%	bus_i	type	Pd	Qd	Gs	Bs	area	Vm	Va	baseKV	zone	Vmax	Vmin
mpc.bus = [
	1	 2	 2823.23	 102.00	 0.0	 0.0	 1	    1.07816	  -10.88827	 275.0	 1	    1.10000	    0.90000;
	2	 2	 3094.70	 113.00	 0.0	 0.0	 1	    1.10000	   -8.76803	 275.0	 1	    1.10000	    0.90000;
	3	 2	 3348.07	 105.00	 0.0	 0.0	 1	    1.09245	  -10.78651	 132.0	 1	    1.10000	    0.90000;
	4	 2	 7890.58	 317.00	 0.0	 0.0	 1	    1.10000	   -8.60518	 275.0	 1	    1.10000	    0.90000;
	5	 2	 3028.34	 128.00	 0.0	 0.0	 1	    1.10000	   -7.03077	 400.0	 1	    1.10000	    0.90000;
	6	 2	 7094.28	 315.00	 0.0	 0.0	 1	    1.09935	   -7.82002	 400.0	 1	    1.10000	    0.90000;
	7	 2	 4494.25	 171.00	 0.0	 0.0	 1	    1.09092	  -11.56487	 400.0	 1	    1.10000	    0.90000;
	8	 1	 708.82	 37.40	 0.0	 0.0	 1	    1.09037	  -11.58113	 400.0	 1	    1.10000	    0.90000;
	9	 1	 784.23	 53.00	 0.0	 0.0	 1	    1.09438	   -8.56190	 400.0	 1	    1.10000	    0.90000;
	10	 2	 15449.36	 465.00	 0.0	 0.0	 1	    1.08637	   -9.94103	 400.0	 1	    1.10000	    0.90000;
	11	 2	 20269.37	 760.00	 0.0	 0.0	 1	    1.09103	   -6.10767	 400.0	 1	    1.10000	    0.90000;
	12	 2	 7172.70	 338.00	 0.0	 0.0	 1	    1.08596	    4.04838	 400.0	 1	    1.10000	    0.90000;
	13	 1	 15226.16	 766.00	 0.0	 0.0	 1	    1.06610	  -11.46695	 400.0	 1	    1.10000	    0.90000;
	14	 1	 11045.60	 566.50	 0.0	 0.0	 1	    1.08015	  -11.28086	 400.0	 1	    1.10000	    0.90000;
	15	 2	 15883.71	 694.60	 0.0	 0.0	 1	    1.10000	   -6.05501	 400.0	 1	    1.10000	    0.90000;
	16	 2	 9694.31	 655.00	 0.0	 0.0	 1	    1.09295	   -5.69438	 400.0	 1	    1.10000	    0.90000;
	17	 2	 6521.19	 371.00	 0.0	 0.0	 1	    1.09565	   -5.50719	 400.0	 1	    1.10000	    0.90000;
	18	 2	 32346.54	 1935.00	 0.0	 0.0	 1	    1.10000	   -3.55253	 400.0	 1	    1.10000	    0.90000;
	19	 2	 12179.72	 648.00	 0.0	 0.0	 1	    1.08727	   -0.65147	 400.0	 1	    1.10000	    0.90000;
	20	 2	 6197.60	 305.80	 0.0	 0.0	 1	    1.09018	    0.79941	 400.0	 1	    1.10000	    0.90000;
	21	 2	 4234.85	 202.20	 0.0	 0.0	 1	    1.09067	   -0.15993	 400.0	 1	    1.10000	    0.90000;
	22	 2	 10979.24	 665.00	 0.0	 0.0	 1	    1.09258	   -0.41794	 400.0	 1	    1.10000	    0.90000;
	23	 2	 28558.10	 1337.00	 0.0	 0.0	 1	    1.10000	   -1.13140	 400.0	 1	    1.10000	    0.90000;
	24	 1	 8554.16	 528.00	 0.0	 0.0	 1	    1.08612	   -2.49483	 400.0	 1	    1.10000	    0.90000;
	25	 2	 58720.85	 2902.00	 0.0	 0.0	 1	    1.10000	    2.33736	 400.0	 1	    1.10000	    0.90000;
	26	 2	 8590.35	 434.00	 0.0	 0.0	 1	    1.08916	    0.84232	 400.0	 1	    1.10000	    0.90000;
	27	 3	 2756.88	 138.00	 0.0	 0.0	 1	    1.10000	    0.00000	 400.0	 1	    1.10000	    0.90000;
	28	 2	 16595.55	 841.00	 0.0	 0.0	 1	    1.10000	   -3.43417	 400.0	 1	    1.10000	    0.90000;
	29	 2	 15545.88	 356.00	 0.0	 0.0	 1	    1.10000	   -0.89060	 400.0	 1	    1.10000	    0.90000;
];

%% generator data
%	bus	Pg	Qg	Qmax	Qmin	Vg	mBase	status	Pmax	Pmin	Pc1	Pc2	Qc1min	Qc1max	Qc2min	Qc2max	ramp_agc	ramp_10	ramp_30	ramp_q	apf
mpc.gen = [
	1	 809.0	 22.565	 405.0	 -405.0	 1.07816	 100.0	 1	 809	 0.0	 0.0	 0.0	 0.0	 0.0	 0.0	 0.0	 0.0	 0.0	 0.0	 0.0	 0.0; % NG
	1	 726.0	 18.138	 363.0	 -363.0	 1.07816	 100.0	 1	 726	 0.0	 0.0	 0.0	 0.0	 0.0	 0.0	 0.0	 0.0	 0.0	 0.0	 0.0	 0.0; % COW
	1	 809.0	 22.565	 405.0	 -405.0	 1.07816	 100.0	 1	 809	 0.0	 0.0	 0.0	 0.0	 0.0	 0.0	 0.0	 0.0	 0.0	 0.0	 0.0	 0.0; % NG
	1	 0.0	 23.803	 416.0	 -416.0	 1.07816	 100.0	 1	 832	 0.0	 0.0	 0.0	 0.0	 0.0	 0.0	 0.0	 0.0	 0.0	 0.0	 0.0	 0.0; % PEL
	2	 1178.0	 -52.967	 589.0	 -589.0	 1.1	 100.0	 1	 1178	 0.0	 0.0	 0.0	 0.0	 0.0	 0.0	 0.0	 0.0	 0.0	 0.0	 0.0	 0.0; % NG
	2	 1329.0	 102.896	 1108.51	 -665.0	 1.1	 100.0	 1	 1329	 0.0	 0.0	 0.0	 0.0	 0.0	 0.0	 0.0	 0.0	 0.0	 0.0	 0.0	 0.0; % NUC
	2	 1059.0	 -42.952	 530.0	 -530.0	 1.1	 100.0	 1	 1059	 0.0	 0.0	 0.0	 0.0	 0.0	 0.0	 0.0	 0.0	 0.0	 0.0	 0.0	 0.0; % COW
	3	 948.0	 22.048	 474.0	 -474.0	 1.09245	 100.0	 1	 948	 0.0	 0.0	 0.0	 0.0	 0.0	 0.0	 0.0	 0.0	 0.0	 0.0	 0.0	 0.0; % NG
	3	 0.0	 23.367	 488.0	 -488.0	 1.09245	 100.0	 1	 975	 0.0	 0.0	 0.0	 0.0	 0.0	 0.0	 0.0	 0.0	 0.0	 0.0	 0.0	 0.0; % PEL
	3	 1235.0	 37.423	 618.0	 -618.0	 1.09245	 100.0	 1	 1235	 0.0	 0.0	 0.0	 0.0	 0.0	 0.0	 0.0	 0.0	 0.0	 0.0	 0.0	 0.0; % COW
	3	 948.0	 22.048	 474.0	 -474.0	 1.09245	 100.0	 1	 948	 0.0	 0.0	 0.0	 0.0	 0.0	 0.0	 0.0	 0.0	 0.0	 0.0	 0.0	 0.0; % NG
	4	 2192.0	 74.537	 1096.0	 -1096.0	 1.1	 100.0	 1	 2192	 0.0	 0.0	 0.0	 0.0	 0.0	 0.0	 0.0	 0.0	 0.0	 0.0	 0.0	 0.0; % NG
	4	 2053.0	 65.484	 1027.0	 -1027.0	 1.1	 100.0	 1	 2053	 0.0	 0.0	 0.0	 0.0	 0.0	 0.0	 0.0	 0.0	 0.0	 0.0	 0.0	 0.0; % NUC
	4	 2192.0	 74.537	 1096.0	 -1096.0	 1.1	 100.0	 1	 2192	 0.0	 0.0	 0.0	 0.0	 0.0	 0.0	 0.0	 0.0	 0.0	 0.0	 0.0	 0.0; % NG
	4	 2192.0	 74.537	 1096.0	 -1096.0	 1.1	 100.0	 1	 2192	 0.0	 0.0	 0.0	 0.0	 0.0	 0.0	 0.0	 0.0	 0.0	 0.0	 0.0	 0.0; % NG
	5	 1783.0	 18.38	 892.0	 -892.0	 1.1	 100.0	 1	 1783	 0.0	 0.0	 0.0	 0.0	 0.0	 0.0	 0.0	 0.0	 0.0	 0.0	 0.0	 0.0; % NG
	5	 1783.0	 18.38	 892.0	 -892.0	 1.1	 100.0	 1	 1783	 0.0	 0.0	 0.0	 0.0	 0.0	 0.0	 0.0	 0.0	 0.0	 0.0	 0.0	 0.0; % NG
	6	 2639.0	 86.192	 1320.0	 -1320.0	 1.09935	 100.0	 1	 2639	 0.0	 0.0	 0.0	 0.0	 0.0	 0.0	 0.0	 0.0	 0.0	 0.0	 0.0	 0.0; % NUC
	6	 2706.0	 90.536	 1353.0	 -1353.0	 1.09935	 100.0	 1	 2706	 0.0	 0.0	 0.0	 0.0	 0.0	 0.0	 0.0	 0.0	 0.0	 0.0	 0.0	 0.0; % COW
	6	 2084.963	 98.149	 1409.0	 -1409.0	 1.09935	 100.0	 1	 2818	 0.0	 0.0	 0.0	 0.0	 0.0	 0.0	 0.0	 0.0	 0.0	 0.0	 0.0	 0.0; % NG
	7	 1952.0	 -24.628	 976.0	 -976.0	 1.09092	 100.0	 1	 1952	 0.0	 0.0	 0.0	 0.0	 0.0	 0.0	 0.0	 0.0	 0.0	 0.0	 0.0	 0.0; % NG
	7	 1874.0	 -22.701	 937.0	 -937.0	 1.09092	 100.0	 1	 1874	 0.0	 0.0	 0.0	 0.0	 0.0	 0.0	 0.0	 0.0	 0.0	 0.0	 0.0	 0.0; % COW
	7	 0.0	 -26.009	 1003.0	 -1003.0	 1.09092	 100.0	 1	 2006	 0.0	 0.0	 0.0	 0.0	 0.0	 0.0	 0.0	 0.0	 0.0	 0.0	 0.0	 0.0; % PEL
	10	 5703.0	 -90.101	 2852.0	 -2852.0	 1.08637	 100.0	 1	 5703	 0.0	 0.0	 0.0	 0.0	 0.0	 0.0	 0.0	 0.0	 0.0	 0.0	 0.0	 0.0; % COW
	10	 5939.0	 -97.703	 2970.0	 -2970.0	 1.08637	 100.0	 1	 5939	 0.0	 0.0	 0.0	 0.0	 0.0	 0.0	 0.0	 0.0	 0.0	 0.0	 0.0	 0.0; % NG
	10	 1719.934	 -90.101	 2852.0	 -2852.0	 1.08637	 100.0	 1	 5703	 0.0	 0.0	 0.0	 0.0	 0.0	 0.0	 0.0	 0.0	 0.0	 0.0	 0.0	 0.0; % COW
	11	 3008.532	 430.589	 2255.0	 -2255.0	 1.09103	 100.0	 1	 4509	 0.0	 0.0	 0.0	 0.0	 0.0	 0.0	 0.0	 0.0	 0.0	 0.0	 0.0	 0.0; % NG
	11	 4330.0	 398.002	 2165.0	 -2165.0	 1.09103	 100.0	 1	 4330	 0.0	 0.0	 0.0	 0.0	 0.0	 0.0	 0.0	 0.0	 0.0	 0.0	 0.0	 0.0; % COW
	11	 4223.0	 379.355	 2112.0	 -2112.0	 1.09103	 100.0	 1	 4223	 0.0	 0.0	 0.0	 0.0	 0.0	 0.0	 0.0	 0.0	 0.0	 0.0	 0.0	 0.0; % NUC
	11	 4330.0	 398.002	 2165.0	 -2165.0	 1.09103	 100.0	 1	 4330	 0.0	 0.0	 0.0	 0.0	 0.0	 0.0	 0.0	 0.0	 0.0	 0.0	 0.0	 0.0; % COW
	11	 4330.0	 398.002	 2165.0	 -2165.0	 1.09103	 100.0	 1	 4330	 0.0	 0.0	 0.0	 0.0	 0.0	 0.0	 0.0	 0.0	 0.0	 0.0	 0.0	 0.0; % COW
	12	 5485.0	 160.363	 2743.0	 -2743.0	 1.08596	 100.0	 1	 5485	 0.0	 0.0	 0.0	 0.0	 0.0	 0.0	 0.0	 0.0	 0.0	 0.0	 0.0	 0.0; % COW
	12	 5350.0	 152.536	 2675.0	 -2675.0	 1.08596	 100.0	 1	 5350	 0.0	 0.0	 0.0	 0.0	 0.0	 0.0	 0.0	 0.0	 0.0	 0.0	 0.0	 0.0; % NUC
	12	 5712.0	 173.798	 2856.0	 -2856.0	 1.08596	 100.0	 1	 5712	 0.0	 0.0	 0.0	 0.0	 0.0	 0.0	 0.0	 0.0	 0.0	 0.0	 0.0	 0.0; % NG
	12	 3988.789	 160.363	 2743.0	 -2743.0	 1.08596	 100.0	 1	 5485	 0.0	 0.0	 0.0	 0.0	 0.0	 0.0	 0.0	 0.0	 0.0	 0.0	 0.0	 0.0; % COW
	15	 28503.0	 2987.738	 14252.0	 -14252.0	 1.1	 100.0	 1	 28503	 0.0	 0.0	 0.0	 0.0	 0.0	 0.0	 0.0	 0.0	 0.0	 0.0	 0.0	 0.0; % COW
	16	 3522.0	 13.82	 1761.0	 -1761.0	 1.09295	 100.0	 1	 3522	 0.0	 0.0	 0.0	 0.0	 0.0	 0.0	 0.0	 0.0	 0.0	 0.0	 0.0	 0.0; % COW
	16	 469.802	 204.029	 3653.23	 -3354.58	 1.09295	 100.0	 1	 3522	 0.0	 0.0	 0.0	 0.0	 0.0	 0.0	 0.0	 0.0	 0.0	 0.0	 0.0	 0.0; % COW
	16	 3522.0	 13.82	 1761.0	 -1761.0	 1.09295	 100.0	 1	 3522	 0.0	 0.0	 0.0	 0.0	 0.0	 0.0	 0.0	 0.0	 0.0	 0.0	 0.0	 0.0; % COW
	17	 0.0	 1194.33	 3780.0	 -3780.0	 1.09565	 100.0	 1	 7559	 0.0	 0.0	 0.0	 0.0	 0.0	 0.0	 0.0	 0.0	 0.0	 0.0	 0.0	 0.0; % COW
	18	 17376.289	 1551.651	 9661.0	 -9661.0	 1.1	 100.0	 1	 19321	 0.0	 0.0	 0.0	 0.0	 0.0	 0.0	 0.0	 0.0	 0.0	 0.0	 0.0	 0.0; % COW
	18	 20121.0	 1679.237	 10061.0	 -10061.0	 1.1	 100.0	 1	 20121	 0.0	 0.0	 0.0	 0.0	 0.0	 0.0	 0.0	 0.0	 0.0	 0.0	 0.0	 0.0; % NG
	19	 6478.0	 157.224	 3239.0	 -3239.0	 1.08727	 100.0	 1	 6478	 0.0	 0.0	 0.0	 0.0	 0.0	 0.0	 0.0	 0.0	 0.0	 0.0	 0.0	 0.0; % COW
	19	 6478.0	 157.224	 3239.0	 -3239.0	 1.08727	 100.0	 1	 6478	 0.0	 0.0	 0.0	 0.0	 0.0	 0.0	 0.0	 0.0	 0.0	 0.0	 0.0	 0.0; % COW
	20	 3706.0	 28.75	 1853.0	 -1853.0	 1.09018	 100.0	 1	 3706	 0.0	 0.0	 0.0	 0.0	 0.0	 0.0	 0.0	 0.0	 0.0	 0.0	 0.0	 0.0; % NG
	20	 3559.0	 26.53	 1780.0	 -1780.0	 1.09018	 100.0	 1	 3559	 0.0	 0.0	 0.0	 0.0	 0.0	 0.0	 0.0	 0.0	 0.0	 0.0	 0.0	 0.0; % COW
	21	 4542.0	 -248.39	 2271.0	 -2271.0	 1.09067	 100.0	 1	 4542	 0.0	 0.0	 0.0	 0.0	 0.0	 0.0	 0.0	 0.0	 0.0	 0.0	 0.0	 0.0; % COW
	22	 11971.999	 -242.983	 5986.0	 -5986.0	 1.09258	 100.0	 1	 11972	 0.0	 0.0	 0.0	 0.0	 0.0	 0.0	 0.0	 0.0	 0.0	 0.0	 0.0	 0.0; % NG
	23	 6950.0	 280.144	 3475.0	 -3475.0	 1.1	 100.0	 1	 6950	 0.0	 0.0	 0.0	 0.0	 0.0	 0.0	 0.0	 0.0	 0.0	 0.0	 0.0	 0.0; % COW
	23	 7237.0	 303.677	 3619.0	 -3619.0	 1.1	 100.0	 1	 7237	 0.0	 0.0	 0.0	 0.0	 0.0	 0.0	 0.0	 0.0	 0.0	 0.0	 0.0	 0.0; % NG
	23	 7237.0	 303.677	 3619.0	 -3619.0	 1.1	 100.0	 1	 7237	 0.0	 0.0	 0.0	 0.0	 0.0	 0.0	 0.0	 0.0	 0.0	 0.0	 0.0	 0.0; % NG
	23	 6950.0	 280.144	 3475.0	 -3475.0	 1.1	 100.0	 1	 6950	 0.0	 0.0	 0.0	 0.0	 0.0	 0.0	 0.0	 0.0	 0.0	 0.0	 0.0	 0.0; % COW
	23	 7237.0	 303.677	 3619.0	 -3619.0	 1.1	 100.0	 1	 7237	 0.0	 0.0	 0.0	 0.0	 0.0	 0.0	 0.0	 0.0	 0.0	 0.0	 0.0	 0.0; % NG
	25	 32307.0	 1786.564	 16154.0	 -16154.0	 1.1	 100.0	 1	 32307	 0.0	 0.0	 0.0	 0.0	 0.0	 0.0	 0.0	 0.0	 0.0	 0.0	 0.0	 0.0; % COW
	25	 33644.0	 1935.403	 16822.0	 -16822.0	 1.1	 100.0	 1	 33644	 0.0	 0.0	 0.0	 0.0	 0.0	 0.0	 0.0	 0.0	 0.0	 0.0	 0.0	 0.0; % NG
	26	 2589.0	 -147.044	 1295.0	 -1295.0	 1.08916	 100.0	 1	 2589	 0.0	 0.0	 0.0	 0.0	 0.0	 0.0	 0.0	 0.0	 0.0	 0.0	 0.0	 0.0; % NG
	26	 0.0	 -135.608	 1243.0	 -1243.0	 1.08916	 100.0	 1	 2486	 0.0	 0.0	 0.0	 0.0	 0.0	 0.0	 0.0	 0.0	 0.0	 0.0	 0.0	 0.0; % COW
	26	 3148.0	 -215.924	 1574.0	 -1574.0	 1.08916	 100.0	 1	 3148	 0.0	 0.0	 0.0	 0.0	 0.0	 0.0	 0.0	 0.0	 0.0	 0.0	 0.0	 0.0; % COW
	26	 2486.0	 -135.608	 1243.0	 -1243.0	 1.08916	 100.0	 1	 2486	 0.0	 0.0	 0.0	 0.0	 0.0	 0.0	 0.0	 0.0	 0.0	 0.0	 0.0	 0.0; % COW
	27	 2015.0	 259.145	 1008.0	 -1008.0	 1.1	 100.0	 1	 2015	 0.0	 0.0	 0.0	 0.0	 0.0	 0.0	 0.0	 0.0	 0.0	 0.0	 0.0	 0.0; % COW
	27	 2098.0	 279.225	 1049.0	 -1049.0	 1.1	 100.0	 1	 2098	 0.0	 0.0	 0.0	 0.0	 0.0	 0.0	 0.0	 0.0	 0.0	 0.0	 0.0	 0.0; % NG
	28	 10526.0	 725.4	 5263.0	 -5263.0	 1.1	 100.0	 1	 10526	 0.0	 0.0	 0.0	 0.0	 0.0	 0.0	 0.0	 0.0	 0.0	 0.0	 0.0	 0.0; % COW
	28	 2186.041	 785.502	 5481.0	 -5481.0	 1.1	 100.0	 1	 10962	 0.0	 0.0	 0.0	 0.0	 0.0	 0.0	 0.0	 0.0	 0.0	 0.0	 0.0	 0.0; % NG
	29	 5649.0	 63.327	 2825.0	 -2825.0	 1.1	 100.0	 1	 5649	 0.0	 0.0	 0.0	 0.0	 0.0	 0.0	 0.0	 0.0	 0.0	 0.0	 0.0	 0.0; % COW
	29	 5649.0	 63.327	 2825.0	 -2825.0	 1.1	 100.0	 1	 5649	 0.0	 0.0	 0.0	 0.0	 0.0	 0.0	 0.0	 0.0	 0.0	 0.0	 0.0	 0.0; % COW
	29	 5649.0	 63.327	 2825.0	 -2825.0	 1.1	 100.0	 1	 5649	 0.0	 0.0	 0.0	 0.0	 0.0	 0.0	 0.0	 0.0	 0.0	 0.0	 0.0	 0.0; % COW
];

%% generator cost data
%	2	startup	shutdown	n	c(n-1)	...	c0
mpc.gencost = [
	2	 1500.0	 0.0	 3	   0.000000	   0.790118	   0.000000; % NG
	2	 1500.0	 0.0	 3	   0.000000	   0.729222	   0.000000; % COW
	2	 1500.0	 0.0	 3	   0.000000	   0.908776	   0.000000; % NG
	2	 1500.0	 0.0	 3	   0.000000	   7.559767	   0.000000; % PEL
	2	 1500.0	 0.0	 3	   0.000000	   0.819741	   0.000000; % NG
	2	 1500.0	 0.0	 3	   0.000000	   0.197330	   0.000000; % NUC
	2	 1500.0	 0.0	 3	   0.000000	   0.808934	   0.000000; % COW
	2	 1500.0	 0.0	 3	   0.000000	   1.344955	   0.000000; % NG
	2	 1500.0	 0.0	 3	   0.000000	   6.778965	   0.000000; % PEL
	2	 1500.0	 0.0	 3	   0.000000	   0.507239	   0.000000; % COW
	2	 1500.0	 0.0	 3	   0.000000	   1.271223	   0.000000; % NG
	2	 1500.0	 0.0	 3	   0.000000	   1.136671	   0.000000; % NG
	2	 1500.0	 0.0	 3	   0.000000	   0.190608	   0.000000; % NUC
	2	 1500.0	 0.0	 3	   0.000000	   1.168690	   0.000000; % NG
	2	 1500.0	 0.0	 3	   0.000000	   1.077668	   0.000000; % NG
	2	 1500.0	 0.0	 3	   0.000000	   0.739243	   0.000000; % NG
	2	 1500.0	 0.0	 3	   0.000000	   0.872250	   0.000000; % NG
	2	 1500.0	 0.0	 3	   0.000000	   0.236058	   0.000000; % NUC
	2	 1500.0	 0.0	 3	   0.000000	   0.823445	   0.000000; % COW
	2	 1500.0	 0.0	 3	   0.000000	   1.377849	   0.000000; % NG
	2	 1500.0	 0.0	 3	   0.000000	   0.994483	   0.000000; % NG
	2	 1500.0	 0.0	 3	   0.000000	   1.038944	   0.000000; % COW
	2	 1500.0	 0.0	 3	   0.000000	   7.159366	   0.000000; % PEL
	2	 1500.0	 0.0	 3	   0.000000	   1.101686	   0.000000; % COW
	2	 1500.0	 0.0	 3	   0.000000	   1.068099	   0.000000; % NG
	2	 1500.0	 0.0	 3	   0.000000	   1.453491	   0.000000; % COW
	2	 1500.0	 0.0	 3	   0.000000	   1.294491	   0.000000; % NG
	2	 1500.0	 0.0	 3	   0.000000	   1.086836	   0.000000; % COW
	2	 1500.0	 0.0	 3	   0.000000	   0.164634	   0.000000; % NUC
	2	 1500.0	 0.0	 3	   0.000000	   0.939701	   0.000000; % COW
	2	 1500.0	 0.0	 3	   0.000000	   0.749410	   0.000000; % COW
	2	 1500.0	 0.0	 3	   0.000000	   0.996643	   0.000000; % COW
	2	 1500.0	 0.0	 3	   0.000000	   0.199950	   0.000000; % NUC
	2	 1500.0	 0.0	 3	   0.000000	   0.920202	   0.000000; % NG
	2	 1500.0	 0.0	 3	   0.000000	   1.037666	   0.000000; % COW
	2	 1500.0	 0.0	 3	   0.000000	   0.714557	   0.000000; % COW
	2	 1500.0	 0.0	 3	   0.000000	   0.579203	   0.000000; % COW
	2	 1500.0	 0.0	 3	   0.000000	   1.184097	   0.000000; % COW
	2	 1500.0	 0.0	 3	   0.000000	   0.380435	   0.000000; % COW
	2	 1500.0	 0.0	 3	   0.000000	   1.319381	   0.000000; % COW
	2	 1500.0	 0.0	 3	   0.000000	   1.248042	   0.000000; % COW
	2	 1500.0	 0.0	 3	   0.000000	   1.183125	   0.000000; % NG
	2	 1500.0	 0.0	 3	   0.000000	   0.935899	   0.000000; % COW
	2	 1500.0	 0.0	 3	   0.000000	   0.830398	   0.000000; % COW
	2	 1500.0	 0.0	 3	   0.000000	   1.108820	   0.000000; % NG
	2	 1500.0	 0.0	 3	   0.000000	   0.255347	   0.000000; % COW
	2	 1500.0	 0.0	 3	   0.000000	   0.837952	   0.000000; % COW
	2	 1500.0	 0.0	 3	   0.000000	   1.210362	   0.000000; % NG
	2	 1500.0	 0.0	 3	   0.000000	   0.524756	   0.000000; % COW
	2	 1500.0	 0.0	 3	   0.000000	   0.764146	   0.000000; % NG
	2	 1500.0	 0.0	 3	   0.000000	   0.712973	   0.000000; % NG
	2	 1500.0	 0.0	 3	   0.000000	   0.511418	   0.000000; % COW
	2	 1500.0	 0.0	 3	   0.000000	   0.914719	   0.000000; % NG
	2	 1500.0	 0.0	 3	   0.000000	   0.663254	   0.000000; % COW
	2	 1500.0	 0.0	 3	   0.000000	   1.051398	   0.000000; % NG
	2	 1500.0	 0.0	 3	   0.000000	   1.134023	   0.000000; % NG
	2	 1500.0	 0.0	 3	   0.000000	   1.273915	   0.000000; % COW
	2	 1500.0	 0.0	 3	   0.000000	   0.833992	   0.000000; % COW
	2	 1500.0	 0.0	 3	   0.000000	   0.538577	   0.000000; % COW
	2	 1500.0	 0.0	 3	   0.000000	   0.858706	   0.000000; % COW
	2	 1500.0	 0.0	 3	   0.000000	   1.101242	   0.000000; % NG
	2	 1500.0	 0.0	 3	   0.000000	   0.573781	   0.000000; % COW
	2	 1500.0	 0.0	 3	   0.000000	   1.302523	   0.000000; % NG
	2	 1500.0	 0.0	 3	   0.000000	   0.468286	   0.000000; % COW
	2	 1500.0	 0.0	 3	   0.000000	   1.152271	   0.000000; % COW
	2	 1500.0	 0.0	 3	   0.000000	   0.954167	   0.000000; % COW
];

%% branch data
%	fbus	tbus	r	x	b	rateA	rateB	rateC	ratio	angle	status	angmin	angmax
mpc.branch = [
	1	 2	 0.0122	 0.02	 0.0856	 525.0	 525.0	 525.0	 0.0	 0.0	 1	 -30.0	 30.0;
	1	 3	 0.007	 0.15	 0.052	 132.0	 132.0	 132.0	 1.0	 2.0	 1	 -30.0	 30.0;
	1	 2	 0.0122	 0.02	 0.2844	 525.0	 525.0	 525.0	 0.0	 0.0	 1	 -30.0	 30.0;
	1	 3	 0.007	 0.15	 0.052	 132.0	 132.0	 132.0	 1.0	 2.0	 1	 -30.0	 30.0;
	2	 4	 0.0004	 0.065	 0.4454	 486.0	 486.0	 486.0	 0.0	 0.0	 1	 -30.0	 30.0;
	2	 4	 0.0004	 0.065	 0.5545	 486.0	 486.0	 486.0	 0.0	 0.0	 1	 -30.0	 30.0;
	4	 7	 0.00211	 0.0135	 0.1174	 1090.0	 1090.0	 1090.0	 0.0	 0.0	 1	 -30.0	 30.0;
	4	 6	 0.0013	 0.023	 0.1496	 1372.0	 1372.0	 1372.0	 0.0	 0.0	 1	 -30.0	 30.0;
	4	 6	 0.0013	 0.023	 0.1758	 1120.0	 1120.0	 1120.0	 0.0	 0.0	 1	 -30.0	 30.0;
	4	 5	 0.001	 0.024	 0.125	 1000.0	 1000.0	 1000.0	 0.0	 0.0	 1	 -30.0	 30.0;
	4	 5	 0.001	 0.024	 0.125	 1000.0	 1000.0	 1000.0	 0.0	 0.0	 1	 -30.0	 30.0;
	4	 7	 0.0021	 0.0135	 0.1538	 1090.0	 1090.0	 1090.0	 0.0	 0.0	 1	 -30.0	 30.0;
	5	 6	 0.00085	 0.01051	 0.38254	 1390.0	 1390.0	 1390.0	 0.0	 0.0	 1	 -30.0	 30.0;
	5	 6	 0.00151	 0.01613	 0.59296	 1390.0	 1390.0	 1390.0	 0.0	 0.0	 1	 -30.0	 30.0;
	6	 9	 0.00078	 0.00852	 0.0737	 2100.0	 2100.0	 2100.0	 0.0	 0.0	 1	 -30.0	 30.0;
	6	 9	 0.00078	 0.00852	 0.4635	 2100.0	 2100.0	 2100.0	 0.0	 0.0	 1	 -30.0	 30.0;
	7	 8	 0.0004	 0.0001	 0.728	 2180.0	 2180.0	 2180.0	 0.0	 0.0	 1	 -30.0	 30.0;
	7	 8	 0.0004	 0.0001	 1.2872	 2500.0	 2500.0	 2500.0	 0.0	 0.0	 1	 -30.0	 30.0;
	7	 6	 0.003	 0.2	 0.2939	 158.0	 158.0	 158.0	 0.0	 0.0	 1	 -30.0	 30.0;
	7	 6	 0.003	 0.2	 0.2939	 158.0	 158.0	 158.0	 0.0	 0.0	 1	 -30.0	 30.0;
	8	 10	 0.00083	 0.0175	 0.6624	 1803.0	 1803.0	 1803.0	 0.0	 0.0	 1	 -30.0	 30.0;
	8	 10	 0.00083	 0.0175	 0.6624	 1803.0	 1803.0	 1803.0	 0.0	 0.0	 1	 -30.0	 30.0;
	9	 11	 0.00164	 0.0163	 0.4868	 1390.0	 1390.0	 1390.0	 0.0	 0.0	 1	 -30.0	 30.0;
	9	 11	 0.00164	 0.0163	 0.4868	 1390.0	 1390.0	 1390.0	 0.0	 0.0	 1	 -30.0	 30.0;
	9	 10	 0.00352	 0.02453	 0.1898	 855.0	 855.0	 855.0	 0.0	 0.0	 1	 -30.0	 30.0;
	9	 10	 0.00492	 0.0343	 0.2502	 775.0	 775.0	 775.0	 0.0	 0.0	 1	 -30.0	 30.0;
	10	 15	 0.00053	 0.00835	 5.373	 3776.0	 3776.0	 3776.0	 0.0	 0.0	 1	 -30.0	 30.0;
	10	 15	 0.00052	 0.0063	 1.0636	 4020.0	 4020.0	 4020.0	 0.0	 0.0	 1	 -30.0	 30.0;
	11	 15	 0.0007	 0.042	 0.3907	 752.0	 752.0	 752.0	 0.0	 0.0	 1	 -30.0	 30.0;
	11	 15	 0.00099	 0.042	 0.5738	 752.0	 752.0	 752.0	 0.0	 0.0	 1	 -30.0	 30.0;
	11	 13	 0.0004	 0.0052	 0.2498	 2170.0	 2170.0	 2170.0	 0.0	 0.0	 1	 -30.0	 30.0;
	11	 13	 0.0004	 0.0052	 0.2664	 2210.0	 2210.0	 2210.0	 0.0	 0.0	 1	 -30.0	 30.0;
	11	 12	 0.0001	 0.0085	 0.0798	 3320.0	 3320.0	 3320.0	 0.0	 0.0	 1	 -30.0	 30.0;
	11	 12	 0.0001	 0.0085	 0.0798	 3320.0	 3320.0	 3320.0	 0.0	 0.0	 1	 -30.0	 30.0;
	12	 13	 0.00096	 0.01078	 0.385	 2919.0	 2919.0	 2919.0	 0.0	 0.0	 1	 -30.0	 30.0;
	12	 18	 0.00074	 0.009	 0.2911	 2400.0	 2400.0	 2400.0	 1.0	 2.0	 1	 -30.0	 30.0;
	12	 18	 0.00097	 0.009	 0.3835	 2400.0	 2400.0	 2400.0	 0.0	 0.0	 1	 -30.0	 30.0;
	12	 13	 0.00096	 0.01078	 0.385	 2919.0	 2919.0	 2919.0	 1.0	 2.0	 1	 -30.0	 30.0;
	13	 18	 0.00049	 0.007	 0.1943	 2400.0	 2400.0	 2400.0	 0.0	 0.0	 1	 -30.0	 30.0;
	13	 18	 0.00084	 0.007	 0.7759	 2400.0	 2400.0	 2400.0	 0.0	 0.0	 1	 -30.0	 30.0;
	13	 15	 0.00137	 0.023	 0.6643	 1240.0	 1240.0	 1240.0	 0.0	 0.0	 1	 -30.0	 30.0;
	13	 15	 0.00164	 0.023	 0.1104	 955.0	 955.0	 955.0	 0.0	 0.0	 1	 -30.0	 30.0;
	13	 14	 0.00107	 0.01163	 1.1745	 1040.0	 1040.0	 1040.0	 0.0	 0.0	 1	 -30.0	 30.0;
	13	 14	 0.00082	 0.01201	 1.2125	 1040.0	 1040.0	 1040.0	 0.0	 0.0	 1	 -30.0	 30.0;
	14	 16	 0.0005	 0.016	 0.2795	 1974.0	 1974.0	 1974.0	 0.0	 0.0	 1	 -30.0	 30.0;
	14	 16	 0.005	 0.018	 0.1466	 625.0	 625.0	 625.0	 0.0	 0.0	 1	 -30.0	 30.0;
	15	 16	 0.00033	 0.0052	 0.3534	 2770.0	 2770.0	 2770.0	 0.0	 0.0	 1	 -30.0	 30.0;
	15	 16	 0.00016	 0.00172	 0.3992	 5540.0	 5540.0	 5540.0	 0.0	 0.0	 1	 -30.0	 30.0;
	15	 14	 0.00019	 0.00222	 0.7592	 5000.0	 5000.0	 5000.0	 0.0	 0.0	 1	 -30.0	 30.0;
	15	 14	 0.00018	 0.00222	 0.5573	 5000.0	 5000.0	 5000.0	 0.0	 0.0	 1	 -30.0	 30.0;
	16	 19	 0.00056	 0.0141	 0.4496	 2239.0	 2239.0	 2239.0	 0.0	 0.0	 1	 -30.0	 30.0;
	16	 19	 0.00056	 0.0141	 0.4496	 2239.0	 2239.0	 2239.0	 0.0	 0.0	 1	 -30.0	 30.0;
	17	 16	 0.001	 0.01072	 0.2651	 2150.0	 2150.0	 2150.0	 0.0	 0.0	 1	 -30.0	 30.0;
	17	 16	 0.001	 0.01072	 0.4573	 1890.0	 1890.0	 1890.0	 0.0	 0.0	 1	 -30.0	 30.0;
	17	 22	 0.00068	 0.0097	 0.4566	 2100.0	 2100.0	 2100.0	 0.0	 0.0	 1	 -30.0	 30.0;
	17	 22	 0.00069	 0.0097	 0.4574	 2100.0	 2100.0	 2100.0	 0.0	 0.0	 1	 -30.0	 30.0;
	18	 17	 0.00042	 0.0018	 0.2349	 3100.0	 3100.0	 3100.0	 0.0	 0.0	 1	 -30.0	 30.0;
	18	 17	 0.00042	 0.0018	 0.2349	 3460.0	 3460.0	 3460.0	 0.0	 0.0	 1	 -30.0	 30.0;
	18	 23	 0.00138	 0.0096	 0.4829	 1970.0	 1970.0	 1970.0	 0.0	 0.0	 1	 -30.0	 30.0;
	18	 23	 0.00117	 0.0096	 0.4122	 1970.0	 1970.0	 1970.0	 0.0	 0.0	 1	 -30.0	 30.0;
	20	 26	 0.00035	 0.0023	 0.2249	 2780.0	 2780.0	 2780.0	 0.0	 0.0	 1	 -30.0	 30.0;
	20	 26	 0.00035	 0.0023	 0.2249	 2780.0	 2780.0	 2780.0	 0.0	 0.0	 1	 -30.0	 30.0;
	20	 19	 0.00178	 0.0213	 0.6682	 1478.0	 1478.0	 1478.0	 0.0	 0.0	 1	 -30.0	 30.0;
	20	 19	 0.00132	 0.0143	 0.3656	 1590.0	 1590.0	 1590.0	 0.0	 0.0	 1	 -30.0	 30.0;
	21	 16	 0.00145	 0.01824	 0.9169	 1727.0	 1727.0	 1727.0	 0.0	 0.0	 1	 -30.0	 30.0;
	21	 16	 0.00145	 0.01824	 0.9169	 1727.0	 1727.0	 1727.0	 0.0	 0.0	 1	 -30.0	 30.0;
	21	 25	 0.00025	 0.01	 0.1586	 2780.0	 2780.0	 2780.0	 0.0	 0.0	 1	 -30.0	 30.0;
	21	 25	 0.00025	 0.01	 0.1586	 2780.0	 2780.0	 2780.0	 0.0	 0.0	 1	 -30.0	 30.0;
	21	 20	 0.0012	 0.0048	 0.4446	 2780.0	 2780.0	 2780.0	 0.0	 0.0	 1	 -30.0	 30.0;
	21	 20	 0.0012	 0.0048	 0.7	 2780.0	 2780.0	 2780.0	 0.0	 0.0	 1	 -30.0	 30.0;
	21	 19	 0.00037	 0.0059	 0.294	 3030.0	 3030.0	 3030.0	 0.0	 0.0	 1	 -30.0	 30.0;
	21	 19	 0.00037	 0.0059	 0.2955	 2780.0	 2780.0	 2780.0	 0.0	 0.0	 1	 -30.0	 30.0;
	22	 16	 0.00178	 0.0172	 0.8403	 1827.0	 1827.0	 1827.0	 0.0	 0.0	 1	 -30.0	 30.0;
	22	 16	 0.00178	 0.0172	 0.627	 1827.0	 1827.0	 1827.0	 0.0	 0.0	 1	 -30.0	 30.0;
	22	 25	 0.00037	 0.0041	 0.4098	 3275.0	 3275.0	 3275.0	 0.0	 0.0	 1	 -30.0	 30.0;
	22	 25	 0.00034	 0.0041	 0.429	 3275.0	 3275.0	 3275.0	 0.0	 0.0	 1	 -30.0	 30.0;
	22	 21	 0.00019	 0.00111	 0.1232	 2780.0	 2780.0	 2780.0	 0.0	 0.0	 1	 -30.0	 30.0;
	22	 21	 0.00048	 0.0061	 0.3041	 2780.0	 2780.0	 2780.0	 0.0	 0.0	 1	 -30.0	 30.0;
	23	 29	 0.00151	 0.0182	 0.53	 1730.0	 1730.0	 1730.0	 0.0	 0.0	 1	 -30.0	 30.0;
	23	 24	 0.00086	 0.0008	 0.9622	 2780.0	 2780.0	 2780.0	 0.0	 0.0	 1	 -30.0	 30.0;
	23	 24	 0.00023	 0.0007	 2.8447	 4400.0	 4400.0	 4400.0	 0.0	 0.0	 1	 -30.0	 30.0;
	23	 22	 0.00055	 0.003	 0.3468	 2780.0	 2780.0	 2780.0	 0.0	 0.0	 1	 -30.0	 30.0;
	23	 22	 0.00039	 0.003	 0.2466	 2770.0	 2770.0	 2770.0	 0.0	 0.0	 1	 -30.0	 30.0;
	23	 29	 0.00151	 0.0182	 0.53	 1730.0	 1730.0	 1730.0	 0.0	 0.0	 1	 -30.0	 30.0;
	24	 28	 0.00068	 0.007	 0.2388	 2210.0	 2210.0	 2210.0	 0.0	 0.0	 1	 -30.0	 30.0;
	24	 25	 0.00104	 0.0091	 0.2918	 1390.0	 1390.0	 1390.0	 0.0	 0.0	 1	 -30.0	 30.0;
	24	 25	 0.00104	 0.0091	 0.2918	 1390.0	 1390.0	 1390.0	 0.0	 0.0	 1	 -30.0	 30.0;
	24	 28	 0.00068	 0.007	 0.2388	 2210.0	 2210.0	 2210.0	 0.0	 0.0	 1	 -30.0	 30.0;
	25	 26	 0.0002	 0.0057	 0.532	 5539.0	 5539.0	 5539.0	 0.0	 0.0	 1	 -30.0	 30.0;
	25	 26	 0.0002	 0.0057	 0.532	 5539.0	 5539.0	 5539.0	 0.0	 0.0	 1	 -30.0	 30.0;
	27	 26	 0.0002	 0.00503	 0.1797	 3100.0	 3100.0	 3100.0	 0.0	 0.0	 1	 -30.0	 30.0;
	27	 26	 0.0002	 0.00503	 0.1797	 3100.0	 3100.0	 3100.0	 0.0	 0.0	 1	 -30.0	 30.0;
	28	 27	 0.00038	 0.00711	 0.2998	 3070.0	 3070.0	 3070.0	 0.0	 0.0	 1	 -30.0	 30.0;
	28	 27	 0.00038	 0.00711	 0.2998	 3070.0	 3070.0	 3070.0	 0.0	 0.0	 1	 -30.0	 30.0;
	29	 28	 0.00051	 0.00796	 0.34	 2780.0	 2780.0	 2780.0	 0.0	 0.0	 1	 -30.0	 30.0;
	29	 28	 0.00051	 0.00796	 0.34	 2780.0	 2780.0	 2780.0	 0.0	 0.0	 1	 -30.0	 30.0;
	3	 4	 0.003	 0.041	 0.0044	 648.0	 648.0	 648.0	 0.0	 0.0	 1	 -30.0	 30.0;
	3	 4	 0.003	 0.041	 0.044	 648.0	 648.0	 648.0	 0.0	 0.0	 1	 -30.0	 30.0;
	3	 2	 0.03004	 0.077	 0.0124	 383.0	 383.0	 383.0	 0.0	 0.0	 1	 -30.0	 30.0;
];

% INFO    : === Translation Options ===
% INFO    : Load Model:                  from file ./nesta_case29_edin.m.api.sol
% INFO    : Gen Active Capacity Model:   stat
% INFO    : Gen Reactive Capacity Model: al50ag
% INFO    : Gen Active Cost Model:       stat
% INFO    : 
% INFO    : === Load Replacement Notes ===
% INFO    : Bus 1	: Pd=468.0, Qd=102.0 -> Pd=2823.23, Qd=102.00
% INFO    : Bus 2	: Pd=513.0, Qd=113.0 -> Pd=3094.70, Qd=113.00
% INFO    : Bus 3	: Pd=555.0, Qd=105.0 -> Pd=3348.07, Qd=105.00
% INFO    : Bus 4	: Pd=1308.0, Qd=317.0 -> Pd=7890.58, Qd=317.00
% INFO    : Bus 5	: Pd=502.0, Qd=128.0 -> Pd=3028.34, Qd=128.00
% INFO    : Bus 6	: Pd=1176.0, Qd=315.0 -> Pd=7094.28, Qd=315.00
% INFO    : Bus 7	: Pd=745.0, Qd=171.0 -> Pd=4494.25, Qd=171.00
% INFO    : Bus 8	: Pd=117.5, Qd=37.4 -> Pd=708.82, Qd=37.40
% INFO    : Bus 9	: Pd=130.0, Qd=53.0 -> Pd=784.23, Qd=53.00
% INFO    : Bus 10	: Pd=2561.0, Qd=465.0 -> Pd=15449.36, Qd=465.00
% INFO    : Bus 11	: Pd=3360.0, Qd=760.0 -> Pd=20269.37, Qd=760.00
% INFO    : Bus 12	: Pd=1189.0, Qd=338.0 -> Pd=7172.70, Qd=338.00
% INFO    : Bus 13	: Pd=2524.0, Qd=766.0 -> Pd=15226.16, Qd=766.00
% INFO    : Bus 14	: Pd=1831.0, Qd=566.5 -> Pd=11045.60, Qd=566.50
% INFO    : Bus 15	: Pd=2633.0, Qd=694.6 -> Pd=15883.71, Qd=694.60
% INFO    : Bus 16	: Pd=1607.0, Qd=655.0 -> Pd=9694.31, Qd=655.00
% INFO    : Bus 17	: Pd=1081.0, Qd=371.0 -> Pd=6521.19, Qd=371.00
% INFO    : Bus 18	: Pd=5362.0, Qd=1935.0 -> Pd=32346.54, Qd=1935.00
% INFO    : Bus 19	: Pd=2019.0, Qd=648.0 -> Pd=12179.72, Qd=648.00
% INFO    : Bus 20	: Pd=1027.36, Qd=305.8 -> Pd=6197.60, Qd=305.80
% INFO    : Bus 21	: Pd=702.0, Qd=202.2 -> Pd=4234.85, Qd=202.20
% INFO    : Bus 22	: Pd=1820.0, Qd=665.0 -> Pd=10979.24, Qd=665.00
% INFO    : Bus 23	: Pd=4734.0, Qd=1337.0 -> Pd=28558.10, Qd=1337.00
% INFO    : Bus 24	: Pd=1418.0, Qd=528.0 -> Pd=8554.16, Qd=528.00
% INFO    : Bus 25	: Pd=9734.0, Qd=2902.0 -> Pd=58720.85, Qd=2902.00
% INFO    : Bus 26	: Pd=1424.0, Qd=434.0 -> Pd=8590.35, Qd=434.00
% INFO    : Bus 27	: Pd=457.0, Qd=138.0 -> Pd=2756.88, Qd=138.00
% INFO    : Bus 28	: Pd=2751.0, Qd=841.0 -> Pd=16595.55, Qd=841.00
% INFO    : Bus 29	: Pd=2577.0, Qd=356.0 -> Pd=15545.88, Qd=356.00
% INFO    : 
% INFO    : === Generator Setpoint Replacement Notes ===
% INFO    : Gen at bus 1	: Pg=668.0, Qg=-10.406 -> Pg=717.0, Qg=15.0
% INFO    : Gen at bus 1	: Pg=0.0, Qg=23.381 -> Pg=717.0, Qg=15.0
% INFO    : Gen at bus 1	: Pg=0.0, Qg=50.399 -> Pg=717.0, Qg=15.0
% INFO    : Gen at bus 1	: Pg=0.0, Qg=-0.557 -> Pg=717.0, Qg=15.0
% INFO    : Gen at bus 2	: Pg=0.0, Qg=-1.762 -> Pg=1043.0, Qg=12.0
% INFO    : Gen at bus 2	: Pg=1524.0, Qg=108.901 -> Pg=1043.0, Qg=12.0
% INFO    : Gen at bus 2	: Pg=0.0, Qg=0.0 -> Pg=1043.0, Qg=12.0
% INFO    : Gen at bus 3	: Pg=250.576, Qg=35.929 -> Pg=840.0, Qg=21.0
% INFO    : Gen at bus 3	: Pg=19.0, Qg=-3.51 -> Pg=840.0, Qg=21.0
% INFO    : Gen at bus 3	: Pg=553.12, Qg=68.438 -> Pg=840.0, Qg=21.0
% INFO    : Gen at bus 3	: Pg=15.12, Qg=-0.255 -> Pg=840.0, Qg=21.0
% INFO    : Gen at bus 4	: Pg=0.0, Qg=-0.685 -> Pg=1941.0, Qg=35.0
% INFO    : Gen at bus 4	: Pg=2284.0, Qg=340.342 -> Pg=1941.0, Qg=35.0
% INFO    : Gen at bus 4	: Pg=0.0, Qg=29.879 -> Pg=1941.0, Qg=35.0
% INFO    : Gen at bus 4	: Pg=259.0, Qg=26.526 -> Pg=1941.0, Qg=35.0
% INFO    : Gen at bus 5	: Pg=0.0, Qg=119.833 -> Pg=1579.0, Qg=-2.0
% INFO    : Gen at bus 5	: Pg=0.0, Qg=2.849 -> Pg=1579.0, Qg=-2.0
% INFO    : Gen at bus 6	: Pg=0.0, Qg=271.677 -> Pg=2495.0, Qg=-77.0
% INFO    : Gen at bus 6	: Pg=0.0, Qg=1.11 -> Pg=2495.0, Qg=-77.0
% INFO    : Gen at bus 6	: Pg=0.0, Qg=-2.194 -> Pg=2495.0, Qg=-77.0
% INFO    : Gen at bus 7	: Pg=0.0, Qg=-10.082 -> Pg=1728.0, Qg=-108.0
% INFO    : Gen at bus 7	: Pg=1215.0, Qg=-34.924 -> Pg=1728.0, Qg=-108.0
% INFO    : Gen at bus 7	: Pg=1102.0, Qg=-12.802 -> Pg=1728.0, Qg=-108.0
% INFO    : Gen at bus 10	: Pg=1207.0, Qg=60.13 -> Pg=5258.0, Qg=-514.0
% INFO    : Gen at bus 10	: Pg=0.0, Qg=30.277 -> Pg=5258.0, Qg=-514.0
% INFO    : Gen at bus 10	: Pg=0.0, Qg=18.892 -> Pg=5258.0, Qg=-514.0
% INFO    : Gen at bus 11	: Pg=0.0, Qg=-57.6 -> Pg=3992.0, Qg=429.0
% INFO    : Gen at bus 11	: Pg=2406.0, Qg=553.691 -> Pg=3992.0, Qg=429.0
% INFO    : Gen at bus 11	: Pg=0.0, Qg=358.73 -> Pg=3992.0, Qg=429.0
% INFO    : Gen at bus 11	: Pg=0.0, Qg=12.618 -> Pg=3992.0, Qg=429.0
% INFO    : Gen at bus 11	: Pg=1039.0, Qg=214.773 -> Pg=3992.0, Qg=429.0
% INFO    : Gen at bus 12	: Pg=980.0, Qg=219.424 -> Pg=5057.0, Qg=414.0
% INFO    : Gen at bus 12	: Pg=1885.0, Qg=452.652 -> Pg=5057.0, Qg=414.0
% INFO    : Gen at bus 12	: Pg=210.0, Qg=17.429 -> Pg=5057.0, Qg=414.0
% INFO    : Gen at bus 12	: Pg=2004.0, Qg=3.44 -> Pg=5057.0, Qg=414.0
% INFO    : Gen at bus 15	: Pg=0.0, Qg=876.742 -> Pg=26275.0, Qg=3439.0
% INFO    : Gen at bus 16	: Pg=3987.0, Qg=152.039 -> Pg=3247.0, Qg=1194.0
% INFO    : Gen at bus 16	: Pg=7040.0, Qg=169.022 -> Pg=3247.0, Qg=1194.0
% INFO    : Gen at bus 16	: Pg=1218.0, Qg=102.95 -> Pg=3247.0, Qg=1194.0
% INFO    : Gen at bus 17	: Pg=2021.0, Qg=814.229 -> Pg=6969.0, Qg=-643.0
% INFO    : Gen at bus 18	: Pg=281.679, Qg=884.97 -> Pg=17811.0, Qg=2892.0
% INFO    : Gen at bus 18	: Pg=0.0, Qg=40.02 -> Pg=17811.0, Qg=2892.0
% INFO    : Gen at bus 19	: Pg=2845.0, Qg=769.938 -> Pg=5972.0, Qg=-143.0
% INFO    : Gen at bus 19	: Pg=0.0, Qg=17.248 -> Pg=5972.0, Qg=-143.0
% INFO    : Gen at bus 20	: Pg=1200.0, Qg=11.314 -> Pg=3281.0, Qg=-209.0
% INFO    : Gen at bus 20	: Pg=0.0, Qg=236.64 -> Pg=3281.0, Qg=-209.0
% INFO    : Gen at bus 21	: Pg=665.0, Qg=326.15 -> Pg=4187.0, Qg=-93.0
% INFO    : Gen at bus 22	: Pg=401.0, Qg=189.72 -> Pg=10598.0, Qg=-776.0
% INFO    : Gen at bus 23	: Pg=3801.0, Qg=1235.982 -> Pg=6407.0, Qg=106.0
% INFO    : Gen at bus 23	: Pg=363.0, Qg=-17.509 -> Pg=6407.0, Qg=106.0
% INFO    : Gen at bus 23	: Pg=0.0, Qg=131.326 -> Pg=6407.0, Qg=106.0
% INFO    : Gen at bus 23	: Pg=4431.0, Qg=858.099 -> Pg=6407.0, Qg=106.0
% INFO    : Gen at bus 23	: Pg=100.0, Qg=0.0 -> Pg=6407.0, Qg=106.0
% INFO    : Gen at bus 25	: Pg=2123.0, Qg=949.38 -> Pg=29782.0, Qg=1447.0
% INFO    : Gen at bus 25	: Pg=0.0, Qg=0.0 -> Pg=29782.0, Qg=1447.0
% INFO    : Gen at bus 26	: Pg=1966.0, Qg=486.271 -> Pg=2292.0, Qg=-13.0
% INFO    : Gen at bus 26	: Pg=0.0, Qg=123.27 -> Pg=2292.0, Qg=-13.0
% INFO    : Gen at bus 26	: Pg=3165.0, Qg=748.822 -> Pg=2292.0, Qg=-13.0
% INFO    : Gen at bus 26	: Pg=1355.0, Qg=0.0 -> Pg=2292.0, Qg=-13.0
% INFO    : Gen at bus 27	: Pg=1081.0, Qg=374.693 -> Pg=1858.0, Qg=-144.0
% INFO    : Gen at bus 27	: Pg=0.0, Qg=36.973 -> Pg=1858.0, Qg=-144.0
% INFO    : Gen at bus 28	: Pg=0.0, Qg=657.819 -> Pg=9704.0, Qg=611.0
% INFO    : Gen at bus 28	: Pg=0.0, Qg=60.789 -> Pg=9704.0, Qg=611.0
% INFO    : Gen at bus 29	: Pg=0.0, Qg=290.272 -> Pg=5208.0, Qg=-43.0
% INFO    : Gen at bus 29	: Pg=905.0, Qg=244.243 -> Pg=5208.0, Qg=-43.0
% INFO    : Gen at bus 29	: Pg=0.0, Qg=0.0 -> Pg=5208.0, Qg=-43.0
% INFO    : 
% INFO    : === Generator Reactive Capacity Atleast Setpoint Value Notes ===
% INFO    : Gen at bus 1	: Qg 15.0, Qmin -8.99, Qmax 7.8 -> Qmin -18.0, Qmax 18.0
% INFO    : Gen at bus 2	: Qg 12.0, Qmin 0.0, Qmax 0.0 -> Qmin -14.4, Qmax 14.4
% INFO    : Gen at bus 3	: Qg 21.0, Qmin -3.51, Qmax -3.51 -> Qmin -25.2, Qmax 25.2
% INFO    : Gen at bus 3	: Qg 21.0, Qmin -7.29, Qmax 6.51 -> Qmin -25.2, Qmax 25.2
% INFO    : Gen at bus 4	: Qg 35.0, Qmin -12.34, Qmax 10.66 -> Qmin -42.0, Qmax 42.0
% INFO    : Gen at bus 6	: Qg -77.0, Qmin -25.5, Qmax 24.8 -> Qmin -92.4, Qmax 92.4
% INFO    : Gen at bus 6	: Qg -77.0, Qmin -17.49, Qmax 12.09 -> Qmin -92.4, Qmax 92.4
% INFO    : Gen at bus 10	: Qg -514.0, Qmin -138.04, Qmax 167.95 -> Qmin -616.8, Qmax 616.8
% INFO    : Gen at bus 11	: Qg 429.0, Qmin -57.6, Qmax -57.6 -> Qmin -514.8, Qmax 514.8
% INFO    : Gen at bus 11	: Qg 429.0, Qmin -75.21, Qmax 94.22 -> Qmin -514.8, Qmax 514.8
% INFO    : Gen at bus 12	: Qg 414.0, Qmin -94.97, Qmax 116.42 -> Qmin -496.8, Qmax 496.8
% INFO    : Gen at bus 12	: Qg 414.0, Qmin -575.52, Qmax 344.48 -> Qmin -575.52, Qmax 496.8
% INFO    : Gen at bus 15	: Qg 3439.0, Qmin -2527.87, Qmax 3535.03 -> Qmin -4126.8, Qmax 3535.03
% INFO    : Gen at bus 16	: Qg 1194.0, Qmin -562.85, Qmax 767.33 -> Qmin -1432.8, Qmax 1432.8
% INFO    : Gen at bus 17	: Qg -643.0, Qmin -405.94, Qmax 814.23 -> Qmin -771.6, Qmax 814.23
% INFO    : Gen at bus 18	: Qg 2892.0, Qmin -534.17, Qmax 884.97 -> Qmin -3470.4, Qmax 3470.4
% INFO    : Gen at bus 18	: Qg 2892.0, Qmin -73.58, Qmax 40.02 -> Qmin -3470.4, Qmax 3470.4
% INFO    : Gen at bus 20	: Qg -209.0, Qmin 236.64, Qmax 236.64 -> Qmin -250.8, Qmax 236.64
% INFO    : Gen at bus 22	: Qg -776.0, Qmin -232.68, Qmax 189.72 -> Qmin -931.2, Qmax 931.2
% INFO    : Gen at bus 23	: Qg 106.0, Qmin -153.99, Qmax 84.81 -> Qmin -153.99, Qmax 127.2
% INFO    : Gen at bus 23	: Qg 106.0, Qmin 0.0, Qmax 0.0 -> Qmin -127.2, Qmax 127.2
% INFO    : Gen at bus 25	: Qg 1447.0, Qmin -947.42, Qmax 949.38 -> Qmin -1736.4, Qmax 1736.4
% INFO    : Gen at bus 25	: Qg 1447.0, Qmin 0.0, Qmax 0.0 -> Qmin -1736.4, Qmax 1736.4
% INFO    : Gen at bus 26	: Qg -13.0, Qmin 0.0, Qmax 0.0 -> Qmin -15.6, Qmax 15.6
% INFO    : Gen at bus 27	: Qg -144.0, Qmin 0.0, Qmax 71.0 -> Qmin -172.8, Qmax 172.8
% INFO    : Gen at bus 28	: Qg 611.0, Qmin -579.7, Qmax 657.82 -> Qmin -733.2, Qmax 657.82
% INFO    : Gen at bus 28	: Qg 611.0, Qmin -71.21, Qmax 60.79 -> Qmin -733.2, Qmax 733.2
% INFO    : Gen at bus 29	: Qg -43.0, Qmin 0.0, Qmax 0.0 -> Qmin -51.6, Qmax 51.6
% INFO    : 
% INFO    : === Generator Classification Notes ===
% INFO    : PEL    3   -     0.97
% INFO    : NUC    5   -     4.27
% INFO    : COW    33  -    57.68
% INFO    : NG     25  -    37.09
% INFO    : 
% INFO    : === Generator Active Capacity Stat Model Notes ===
% WARNING : Failed to find a generator capacity within (717.0-3585.0) after 100 samples, using percent increase model
% INFO    : Gen at bus 1 - NG	: Pg=717.0, Pmax=668.0 -> Pmax=809   samples: 100
% INFO    : Gen at bus 1 - COW	: Pg=717.0, Pmax=554.28 -> Pmax=726   samples: 10
% WARNING : Failed to find a generator capacity within (717.0-3585.0) after 100 samples, using percent increase model
% INFO    : Gen at bus 1 - NG	: Pg=717.0, Pmax=300.0 -> Pmax=809   samples: 100
% WARNING : Failed to find a generator capacity within (717.0-3585.0) after 100 samples, using percent increase model
% INFO    : Gen at bus 1 - PEL	: Pg=717.0, Pmax=18.72 -> Pmax=832   samples: 100
% WARNING : Failed to find a generator capacity within (1043.0-5215.0) after 100 samples, using percent increase model
% INFO    : Gen at bus 2 - NG	: Pg=1043.0, Pmax=50.6 -> Pmax=1178   samples: 100
% INFO    : Gen at bus 2 - NUC	: Pg=1043.0, Pmax=1524.0 -> Pmax=1329   samples: 1
% INFO    : Gen at bus 2 - COW	: Pg=1043.0, Pmax=12.0 -> Pmax=1059   samples: 1
% WARNING : Failed to find a generator capacity within (840.0-4200.0) after 100 samples, using percent increase model
% INFO    : Gen at bus 3 - NG	: Pg=840.0, Pmax=550.99 -> Pmax=948   samples: 100
% WARNING : Failed to find a generator capacity within (840.0-4200.0) after 100 samples, using percent increase model
% INFO    : Gen at bus 3 - PEL	: Pg=840.0, Pmax=19.0 -> Pmax=975   samples: 100
% INFO    : Gen at bus 3 - COW	: Pg=840.0, Pmax=553.12 -> Pmax=1235   samples: 3
% WARNING : Failed to find a generator capacity within (840.0-4200.0) after 100 samples, using percent increase model
% INFO    : Gen at bus 3 - NG	: Pg=840.0, Pmax=15.12 -> Pmax=948   samples: 100
% WARNING : Failed to find a generator capacity within (1941.0-9705.0) after 100 samples, using percent increase model
% INFO    : Gen at bus 4 - NG	: Pg=1941.0, Pmax=35.0 -> Pmax=2192   samples: 100
% WARNING : Failed to find a generator capacity within (1941.0-9705.0) after 100 samples, using percent increase model
% INFO    : Gen at bus 4 - NUC	: Pg=1941.0, Pmax=2284.0 -> Pmax=2053   samples: 100
% WARNING : Failed to find a generator capacity within (1941.0-9705.0) after 100 samples, using percent increase model
% INFO    : Gen at bus 4 - NG	: Pg=1941.0, Pmax=440.0 -> Pmax=2192   samples: 100
% WARNING : Failed to find a generator capacity within (1941.0-9705.0) after 100 samples, using percent increase model
% INFO    : Gen at bus 4 - NG	: Pg=1941.0, Pmax=259.0 -> Pmax=2192   samples: 100
% WARNING : Failed to find a generator capacity within (1579.0-7895.0) after 100 samples, using percent increase model
% INFO    : Gen at bus 5 - NG	: Pg=1579.0, Pmax=1074.0 -> Pmax=1783   samples: 100
% WARNING : Failed to find a generator capacity within (1579.0-7895.0) after 100 samples, using percent increase model
% INFO    : Gen at bus 5 - NG	: Pg=1579.0, Pmax=23.2 -> Pmax=1783   samples: 100
% WARNING : Failed to find a generator capacity within (2495.0-12475.0) after 100 samples, using percent increase model
% INFO    : Gen at bus 6 - NUC	: Pg=2495.0, Pmax=1390.92 -> Pmax=2639   samples: 100
% WARNING : Failed to find a generator capacity within (2495.0-12475.0) after 100 samples, using percent increase model
% INFO    : Gen at bus 6 - COW	: Pg=2495.0, Pmax=33.0 -> Pmax=2706   samples: 100
% WARNING : Failed to find a generator capacity within (2495.0-12475.0) after 100 samples, using percent increase model
% INFO    : Gen at bus 6 - NG	: Pg=2495.0, Pmax=49.4 -> Pmax=2818   samples: 100
% WARNING : Failed to find a generator capacity within (1728.0-8640.0) after 100 samples, using percent increase model
% INFO    : Gen at bus 7 - NG	: Pg=1728.0, Pmax=314.25 -> Pmax=1952   samples: 100
% WARNING : Failed to find a generator capacity within (1728.0-8640.0) after 100 samples, using percent increase model
% INFO    : Gen at bus 7 - COW	: Pg=1728.0, Pmax=1215.0 -> Pmax=1874   samples: 100
% WARNING : Failed to find a generator capacity within (1728.0-8640.0) after 100 samples, using percent increase model
% INFO    : Gen at bus 7 - PEL	: Pg=1728.0, Pmax=1102.0 -> Pmax=2006   samples: 100
% WARNING : Failed to find a generator capacity within (5258.0-26290.0) after 100 samples, using percent increase model
% INFO    : Gen at bus 10 - COW	: Pg=5258.0, Pmax=1207.0 -> Pmax=5703   samples: 100
% WARNING : Failed to find a generator capacity within (5258.0-26290.0) after 100 samples, using percent increase model
% INFO    : Gen at bus 10 - NG	: Pg=5258.0, Pmax=1875.0 -> Pmax=5939   samples: 100
% WARNING : Failed to find a generator capacity within (5258.0-26290.0) after 100 samples, using percent increase model
% INFO    : Gen at bus 10 - COW	: Pg=5258.0, Pmax=420.0 -> Pmax=5703   samples: 100
% WARNING : Failed to find a generator capacity within (3992.0-19960.0) after 100 samples, using percent increase model
% INFO    : Gen at bus 11 - NG	: Pg=3992.0, Pmax=180.0 -> Pmax=4509   samples: 100
% WARNING : Failed to find a generator capacity within (3992.0-19960.0) after 100 samples, using percent increase model
% INFO    : Gen at bus 11 - COW	: Pg=3992.0, Pmax=2406.0 -> Pmax=4330   samples: 100
% WARNING : Failed to find a generator capacity within (3992.0-19960.0) after 100 samples, using percent increase model
% INFO    : Gen at bus 11 - NUC	: Pg=3992.0, Pmax=1987.0 -> Pmax=4223   samples: 100
% WARNING : Failed to find a generator capacity within (3992.0-19960.0) after 100 samples, using percent increase model
% INFO    : Gen at bus 11 - COW	: Pg=3992.0, Pmax=155.0 -> Pmax=4330   samples: 100
% WARNING : Failed to find a generator capacity within (3992.0-19960.0) after 100 samples, using percent increase model
% INFO    : Gen at bus 11 - COW	: Pg=3992.0, Pmax=1039.0 -> Pmax=4330   samples: 100
% WARNING : Failed to find a generator capacity within (5057.0-25285.0) after 100 samples, using percent increase model
% INFO    : Gen at bus 12 - COW	: Pg=5057.0, Pmax=980.0 -> Pmax=5485   samples: 100
% WARNING : Failed to find a generator capacity within (5057.0-25285.0) after 100 samples, using percent increase model
% INFO    : Gen at bus 12 - NUC	: Pg=5057.0, Pmax=1885.0 -> Pmax=5350   samples: 100
% WARNING : Failed to find a generator capacity within (5057.0-25285.0) after 100 samples, using percent increase model
% INFO    : Gen at bus 12 - NG	: Pg=5057.0, Pmax=210.0 -> Pmax=5712   samples: 100
% WARNING : Failed to find a generator capacity within (5057.0-25285.0) after 100 samples, using percent increase model
% INFO    : Gen at bus 12 - COW	: Pg=5057.0, Pmax=2004.0 -> Pmax=5485   samples: 100
% WARNING : Failed to find a generator capacity within (26275.0-131375.0) after 100 samples, using percent increase model
% INFO    : Gen at bus 15 - COW	: Pg=26275.0, Pmax=7832.0 -> Pmax=28503   samples: 100
% WARNING : Failed to find a generator capacity within (3247.0-16235.0) after 100 samples, using percent increase model
% INFO    : Gen at bus 16 - COW	: Pg=3247.0, Pmax=3987.0 -> Pmax=3522   samples: 100
% WARNING : Failed to find a generator capacity within (3247.0-16235.0) after 100 samples, using percent increase model
% INFO    : Gen at bus 16 - COW	: Pg=3247.0, Pmax=7040.0 -> Pmax=3522   samples: 100
% WARNING : Failed to find a generator capacity within (3247.0-16235.0) after 100 samples, using percent increase model
% INFO    : Gen at bus 16 - COW	: Pg=3247.0, Pmax=1218.0 -> Pmax=3522   samples: 100
% WARNING : Failed to find a generator capacity within (6969.0-34845.0) after 100 samples, using percent increase model
% INFO    : Gen at bus 17 - COW	: Pg=6969.0, Pmax=2021.0 -> Pmax=7559   samples: 100
% WARNING : Failed to find a generator capacity within (17811.0-89055.0) after 100 samples, using percent increase model
% INFO    : Gen at bus 18 - COW	: Pg=17811.0, Pmax=1982.0 -> Pmax=19321   samples: 100
% WARNING : Failed to find a generator capacity within (17811.0-89055.0) after 100 samples, using percent increase model
% INFO    : Gen at bus 18 - NG	: Pg=17811.0, Pmax=228.0 -> Pmax=20121   samples: 100
% WARNING : Failed to find a generator capacity within (5972.0-29860.0) after 100 samples, using percent increase model
% INFO    : Gen at bus 19 - COW	: Pg=5972.0, Pmax=2845.0 -> Pmax=6478   samples: 100
% WARNING : Failed to find a generator capacity within (5972.0-29860.0) after 100 samples, using percent increase model
% INFO    : Gen at bus 19 - COW	: Pg=5972.0, Pmax=406.8 -> Pmax=6478   samples: 100
% WARNING : Failed to find a generator capacity within (3281.0-16405.0) after 100 samples, using percent increase model
% INFO    : Gen at bus 20 - NG	: Pg=3281.0, Pmax=1200.0 -> Pmax=3706   samples: 100
% WARNING : Failed to find a generator capacity within (3281.0-16405.0) after 100 samples, using percent increase model
% INFO    : Gen at bus 20 - COW	: Pg=3281.0, Pmax=360.0 -> Pmax=3559   samples: 100
% WARNING : Failed to find a generator capacity within (4187.0-20935.0) after 100 samples, using percent increase model
% INFO    : Gen at bus 21 - COW	: Pg=4187.0, Pmax=665.0 -> Pmax=4542   samples: 100
% WARNING : Failed to find a generator capacity within (10598.0-52990.0) after 100 samples, using percent increase model
% INFO    : Gen at bus 22 - NG	: Pg=10598.0, Pmax=401.0 -> Pmax=11972   samples: 100
% WARNING : Failed to find a generator capacity within (6407.0-32035.0) after 100 samples, using percent increase model
% INFO    : Gen at bus 23 - COW	: Pg=6407.0, Pmax=3801.0 -> Pmax=6950   samples: 100
% WARNING : Failed to find a generator capacity within (6407.0-32035.0) after 100 samples, using percent increase model
% INFO    : Gen at bus 23 - NG	: Pg=6407.0, Pmax=363.0 -> Pmax=7237   samples: 100
% WARNING : Failed to find a generator capacity within (6407.0-32035.0) after 100 samples, using percent increase model
% INFO    : Gen at bus 23 - NG	: Pg=6407.0, Pmax=470.4 -> Pmax=7237   samples: 100
% WARNING : Failed to find a generator capacity within (6407.0-32035.0) after 100 samples, using percent increase model
% INFO    : Gen at bus 23 - COW	: Pg=6407.0, Pmax=4431.0 -> Pmax=6950   samples: 100
% WARNING : Failed to find a generator capacity within (6407.0-32035.0) after 100 samples, using percent increase model
% INFO    : Gen at bus 23 - NG	: Pg=6407.0, Pmax=100.0 -> Pmax=7237   samples: 100
% WARNING : Failed to find a generator capacity within (29782.0-148910.0) after 100 samples, using percent increase model
% INFO    : Gen at bus 25 - COW	: Pg=29782.0, Pmax=2123.0 -> Pmax=32307   samples: 100
% WARNING : Failed to find a generator capacity within (29782.0-148910.0) after 100 samples, using percent increase model
% INFO    : Gen at bus 25 - NG	: Pg=29782.0, Pmax=1245.0 -> Pmax=33644   samples: 100
% WARNING : Failed to find a generator capacity within (2292.0-11460.0) after 100 samples, using percent increase model
% INFO    : Gen at bus 26 - NG	: Pg=2292.0, Pmax=1966.0 -> Pmax=2589   samples: 100
% WARNING : Failed to find a generator capacity within (2292.0-11460.0) after 100 samples, using percent increase model
% INFO    : Gen at bus 26 - COW	: Pg=2292.0, Pmax=1131.0 -> Pmax=2486   samples: 100
% INFO    : Gen at bus 26 - COW	: Pg=2292.0, Pmax=3165.0 -> Pmax=3148   samples: 4
% WARNING : Failed to find a generator capacity within (2292.0-11460.0) after 100 samples, using percent increase model
% INFO    : Gen at bus 26 - COW	: Pg=2292.0, Pmax=1355.0 -> Pmax=2486   samples: 100
% WARNING : Failed to find a generator capacity within (1858.0-9290.0) after 100 samples, using percent increase model
% INFO    : Gen at bus 27 - COW	: Pg=1858.0, Pmax=1081.0 -> Pmax=2015   samples: 100
% WARNING : Failed to find a generator capacity within (1858.0-9290.0) after 100 samples, using percent increase model
% INFO    : Gen at bus 27 - NG	: Pg=1858.0, Pmax=300.0 -> Pmax=2098   samples: 100
% WARNING : Failed to find a generator capacity within (9704.0-48520.0) after 100 samples, using percent increase model
% INFO    : Gen at bus 28 - COW	: Pg=9704.0, Pmax=1320.0 -> Pmax=10526   samples: 100
% WARNING : Failed to find a generator capacity within (9704.0-48520.0) after 100 samples, using percent increase model
% INFO    : Gen at bus 28 - NG	: Pg=9704.0, Pmax=208.0 -> Pmax=10962   samples: 100
% WARNING : Failed to find a generator capacity within (5208.0-26040.0) after 100 samples, using percent increase model
% INFO    : Gen at bus 29 - COW	: Pg=5208.0, Pmax=1261.0 -> Pmax=5649   samples: 100
% WARNING : Failed to find a generator capacity within (5208.0-26040.0) after 100 samples, using percent increase model
% INFO    : Gen at bus 29 - COW	: Pg=5208.0, Pmax=905.0 -> Pmax=5649   samples: 100
% WARNING : Failed to find a generator capacity within (5208.0-26040.0) after 100 samples, using percent increase model
% INFO    : Gen at bus 29 - COW	: Pg=5208.0, Pmax=140.0 -> Pmax=5649   samples: 100
% INFO    : 
% INFO    : === Generator Active Capacity LB Model Notes ===
% INFO    : 
% INFO    : === Generator Reactive Capacity Atleast Max 50 Percent Active Model Notes ===
% INFO    : Gen at bus 1 - NG	: Pmax 809.0, Qmin -188.46, Qmax 139.22 -> Qmin -405.0, Qmax 405.0
% INFO    : Gen at bus 1 - COW	: Pmax 726.0, Qmin -66.3, Qmax 105.23 -> Qmin -363.0, Qmax 363.0
% INFO    : Gen at bus 1 - NG	: Pmax 809.0, Qmin -100.0, Qmax 180.0 -> Qmin -405.0, Qmax 405.0
% INFO    : Gen at bus 1 - PEL	: Pmax 832.0, Qmin -18.0, Qmax 18.0 -> Qmin -416.0, Qmax 416.0
% INFO    : Gen at bus 2 - NG	: Pmax 1178.0, Qmin -17.67, Qmax 14.33 -> Qmin -589.0, Qmax 589.0
% INFO    : Gen at bus 2 - NUC	: Pmax 1329.0, Qmin -473.36, Qmax 1108.51 -> Qmin -665.0, Qmax 1108.51
% INFO    : Gen at bus 2 - COW	: Pmax 1059.0, Qmin -14.4, Qmax 14.4 -> Qmin -530.0, Qmax 530.0
% INFO    : Gen at bus 3 - NG	: Pmax 948.0, Qmin -158.14, Qmax 128.34 -> Qmin -474.0, Qmax 474.0
% INFO    : Gen at bus 3 - PEL	: Pmax 975.0, Qmin -25.2, Qmax 25.2 -> Qmin -488.0, Qmax 488.0
% INFO    : Gen at bus 3 - COW	: Pmax 1235.0, Qmin -66.17, Qmax 144.79 -> Qmin -618.0, Qmax 618.0
% INFO    : Gen at bus 3 - NG	: Pmax 948.0, Qmin -25.2, Qmax 25.2 -> Qmin -474.0, Qmax 474.0
% INFO    : Gen at bus 4 - NG	: Pmax 2192.0, Qmin -42.0, Qmax 42.0 -> Qmin -1096.0, Qmax 1096.0
% INFO    : Gen at bus 4 - NUC	: Pmax 2053.0, Qmin -679.0, Qmax 641.47 -> Qmin -1027.0, Qmax 1027.0
% INFO    : Gen at bus 4 - NG	: Pmax 2192.0, Qmin -137.86, Qmax 150.34 -> Qmin -1096.0, Qmax 1096.0
% INFO    : Gen at bus 4 - NG	: Pmax 2192.0, Qmin -122.95, Qmax 137.27 -> Qmin -1096.0, Qmax 1096.0
% INFO    : Gen at bus 5 - NG	: Pmax 1783.0, Qmin -429.77, Qmax 416.47 -> Qmin -892.0, Qmax 892.0
% INFO    : Gen at bus 5 - NG	: Pmax 1783.0, Qmin -9.94, Qmax 15.39 -> Qmin -892.0, Qmax 892.0
% INFO    : Gen at bus 6 - NUC	: Pmax 2639.0, Qmin -484.8, Qmax 439.66 -> Qmin -1320.0, Qmax 1320.0
% INFO    : Gen at bus 6 - COW	: Pmax 2706.0, Qmin -92.4, Qmax 92.4 -> Qmin -1353.0, Qmax 1353.0
% INFO    : Gen at bus 6 - NG	: Pmax 2818.0, Qmin -92.4, Qmax 92.4 -> Qmin -1409.0, Qmax 1409.0
% INFO    : Gen at bus 7 - NG	: Pmax 1952.0, Qmin -131.02, Qmax 125.76 -> Qmin -976.0, Qmax 976.0
% INFO    : Gen at bus 7 - COW	: Pmax 1874.0, Qmin -469.07, Qmax 681.34 -> Qmin -937.0, Qmax 937.0
% INFO    : Gen at bus 7 - PEL	: Pmax 2006.0, Qmin -205.24, Qmax 220.34 -> Qmin -1003.0, Qmax 1003.0
% INFO    : Gen at bus 10 - COW	: Pmax 5703.0, Qmin -539.68, Qmax 559.19 -> Qmin -2852.0, Qmax 2852.0
% INFO    : Gen at bus 10 - NG	: Pmax 5939.0, Qmin -829.63, Qmax 697.17 -> Qmin -2970.0, Qmax 2970.0
% INFO    : Gen at bus 10 - COW	: Pmax 5703.0, Qmin -616.8, Qmax 616.8 -> Qmin -2852.0, Qmax 2852.0
% INFO    : Gen at bus 11 - NG	: Pmax 4509.0, Qmin -514.8, Qmax 514.8 -> Qmin -2255.0, Qmax 2255.0
% INFO    : Gen at bus 11 - COW	: Pmax 4330.0, Qmin -1006.32, Qmax 1216.1 -> Qmin -2165.0, Qmax 2165.0
% INFO    : Gen at bus 11 - NUC	: Pmax 4223.0, Qmin -571.46, Qmax 873.22 -> Qmin -2112.0, Qmax 2112.0
% INFO    : Gen at bus 11 - COW	: Pmax 4330.0, Qmin -514.8, Qmax 514.8 -> Qmin -2165.0, Qmax 2165.0
% INFO    : Gen at bus 11 - COW	: Pmax 4330.0, Qmin -539.07, Qmax 670.32 -> Qmin -2165.0, Qmax 2165.0
% INFO    : Gen at bus 12 - COW	: Pmax 5485.0, Qmin -418.12, Qmax 579.98 -> Qmin -2743.0, Qmax 2743.0
% INFO    : Gen at bus 12 - NUC	: Pmax 5350.0, Qmin -853.06, Qmax 960.05 -> Qmin -2675.0, Qmax 2675.0
% INFO    : Gen at bus 12 - NG	: Pmax 5712.0, Qmin -496.8, Qmax 496.8 -> Qmin -2856.0, Qmax 2856.0
% INFO    : Gen at bus 12 - COW	: Pmax 5485.0, Qmin -575.52, Qmax 496.8 -> Qmin -2743.0, Qmax 2743.0
% INFO    : Gen at bus 15 - COW	: Pmax 28503.0, Qmin -4126.8, Qmax 3535.03 -> Qmin -14252.0, Qmax 14252.0
% INFO    : Gen at bus 16 - COW	: Pmax 3522.0, Qmin -1289.62, Qmax 1587.06 -> Qmin -1761.0, Qmax 1761.0
% INFO    : Gen at bus 16 - COW	: Pmax 3522.0, Qmin -1432.8, Qmax 1432.8 -> Qmin -1761.0, Qmax 1761.0
% INFO    : Gen at bus 17 - COW	: Pmax 7559.0, Qmin -771.6, Qmax 814.23 -> Qmin -3780.0, Qmax 3780.0
% INFO    : Gen at bus 18 - COW	: Pmax 19321.0, Qmin -3470.4, Qmax 3470.4 -> Qmin -9661.0, Qmax 9661.0
% INFO    : Gen at bus 18 - NG	: Pmax 20121.0, Qmin -3470.4, Qmax 3470.4 -> Qmin -10061.0, Qmax 10061.0
% INFO    : Gen at bus 19 - COW	: Pmax 6478.0, Qmin -1468.98, Qmax 1336.63 -> Qmin -3239.0, Qmax 3239.0
% INFO    : Gen at bus 19 - COW	: Pmax 6478.0, Qmin -162.7, Qmax 162.7 -> Qmin -3239.0, Qmax 3239.0
% INFO    : Gen at bus 20 - NG	: Pmax 3706.0, Qmin -523.38, Qmax 621.14 -> Qmin -1853.0, Qmax 1853.0
% INFO    : Gen at bus 20 - COW	: Pmax 3559.0, Qmin -250.8, Qmax 236.64 -> Qmin -1780.0, Qmax 1780.0
% INFO    : Gen at bus 21 - COW	: Pmax 4542.0, Qmin -306.07, Qmax 326.15 -> Qmin -2271.0, Qmax 2271.0
% INFO    : Gen at bus 22 - NG	: Pmax 11972.0, Qmin -931.2, Qmax 931.2 -> Qmin -5986.0, Qmax 5986.0
% INFO    : Gen at bus 23 - COW	: Pmax 6950.0, Qmin -1388.27, Qmax 1589.67 -> Qmin -3475.0, Qmax 3475.0
% INFO    : Gen at bus 23 - NG	: Pmax 7237.0, Qmin -153.99, Qmax 127.2 -> Qmin -3619.0, Qmax 3619.0
% INFO    : Gen at bus 23 - NG	: Pmax 7237.0, Qmin -211.43, Qmax 317.76 -> Qmin -3619.0, Qmax 3619.0
% INFO    : Gen at bus 23 - COW	: Pmax 6950.0, Qmin -1262.24, Qmax 1200.81 -> Qmin -3475.0, Qmax 3475.0
% INFO    : Gen at bus 23 - NG	: Pmax 7237.0, Qmin -127.2, Qmax 127.2 -> Qmin -3619.0, Qmax 3619.0
% INFO    : Gen at bus 25 - COW	: Pmax 32307.0, Qmin -1736.4, Qmax 1736.4 -> Qmin -16154.0, Qmax 16154.0
% INFO    : Gen at bus 25 - NG	: Pmax 33644.0, Qmin -1736.4, Qmax 1736.4 -> Qmin -16822.0, Qmax 16822.0
% INFO    : Gen at bus 26 - NG	: Pmax 2589.0, Qmin -431.35, Qmax 881.44 -> Qmin -1295.0, Qmax 1295.0
% INFO    : Gen at bus 26 - COW	: Pmax 2486.0, Qmin -294.62, Qmax 384.11 -> Qmin -1243.0, Qmax 1243.0
% INFO    : Gen at bus 26 - COW	: Pmax 3148.0, Qmin -1114.64, Qmax 1254.53 -> Qmin -1574.0, Qmax 1574.0
% INFO    : Gen at bus 26 - COW	: Pmax 2486.0, Qmin -15.6, Qmax 15.6 -> Qmin -1243.0, Qmax 1243.0
% INFO    : Gen at bus 27 - COW	: Pmax 2015.0, Qmin -541.79, Qmax 666.03 -> Qmin -1008.0, Qmax 1008.0
% INFO    : Gen at bus 27 - NG	: Pmax 2098.0, Qmin -172.8, Qmax 172.8 -> Qmin -1049.0, Qmax 1049.0
% INFO    : Gen at bus 28 - COW	: Pmax 10526.0, Qmin -733.2, Qmax 657.82 -> Qmin -5263.0, Qmax 5263.0
% INFO    : Gen at bus 28 - NG	: Pmax 10962.0, Qmin -733.2, Qmax 733.2 -> Qmin -5481.0, Qmax 5481.0
% INFO    : Gen at bus 29 - COW	: Pmax 5649.0, Qmin -480.43, Qmax 455.32 -> Qmin -2825.0, Qmax 2825.0
% INFO    : Gen at bus 29 - COW	: Pmax 5649.0, Qmin -412.03, Qmax 403.35 -> Qmin -2825.0, Qmax 2825.0
% INFO    : Gen at bus 29 - COW	: Pmax 5649.0, Qmin -51.6, Qmax 51.6 -> Qmin -2825.0, Qmax 2825.0
% INFO    : 
% INFO    : === Generator Active Cost Stat Model Notes ===
% INFO    : Updated Generator Cost: NG - 0.0 0.816753 0.0 -> 0 0.790117913501 0
% INFO    : Updated Generator Cost: COW - 0.0 1.075915 0.0 -> 0 0.729222084057 0
% INFO    : Updated Generator Cost: NG - 0.0 0.848101 0.0 -> 0 0.908776411331 0
% INFO    : Updated Generator Cost: PEL - 0.0 6.890404 0.0 -> 0 7.5597668768 0
% INFO    : Updated Generator Cost: NG - 0.0 1.123794 0.0 -> 0 0.819741158274 0
% INFO    : Updated Generator Cost: NUC - 0.0 0.272726 0.0 -> 0 0.197329953793 0
% INFO    : Updated Generator Cost: COW - 0.0 1.154216 0.0 -> 0 0.808933907309 0
% INFO    : Updated Generator Cost: NG - 0.0 0.860523 0.0 -> 0 1.34495549408 0
% INFO    : Updated Generator Cost: PEL - 0.0 0.82838 0.0 -> 0 6.77896526139 0
% INFO    : Updated Generator Cost: COW - 0.0 0.833091 0.0 -> 0 0.507238631852 0
% INFO    : Updated Generator Cost: NG - 0.0 0.834253 0.0 -> 0 1.27122310935 0
% INFO    : Updated Generator Cost: NG - 0.0 6.851702 0.0 -> 0 1.13667068025 0
% INFO    : Updated Generator Cost: NUC - 0.0 0.273494 0.0 -> 0 0.190607969152 0
% INFO    : Updated Generator Cost: NG - 0.0 0.976266 0.0 -> 0 1.16868999248 0
% INFO    : Updated Generator Cost: NG - 0.0 0.474393 0.0 -> 0 1.0776680694 0
% INFO    : Updated Generator Cost: NG - 0.0 1.242228 0.0 -> 0 0.73924289853 0
% INFO    : Updated Generator Cost: NG - 0.0 7.220847 0.0 -> 0 0.872250024763 0
% INFO    : Updated Generator Cost: NUC - 0.0 1.130158 0.0 -> 0 0.236057599469 0
% INFO    : Updated Generator Cost: COW - 0.0 1.34824 0.0 -> 0 0.82344461354 0
% INFO    : Updated Generator Cost: NG - 0.0 1.43219 0.0 -> 0 1.37784916067 0
% INFO    : Updated Generator Cost: NG - 0.0 1.098766 0.0 -> 0 0.994483186426 0
% INFO    : Updated Generator Cost: COW - 0.0 0.238951 0.0 -> 0 1.03894372884 0
% INFO    : Updated Generator Cost: PEL - 0.0 0.589471 0.0 -> 0 7.15936619754 0
% INFO    : Updated Generator Cost: COW - 0.0 0.225459 0.0 -> 0 1.10168632526 0
% INFO    : Updated Generator Cost: NG - 0.0 0.905478 0.0 -> 0 1.06809882955 0
% INFO    : Updated Generator Cost: COW - 0.0 1.021435 0.0 -> 0 1.45349124656 0
% INFO    : Updated Generator Cost: NG - 0.0 1.179066 0.0 -> 0 1.29449077367 0
% INFO    : Updated Generator Cost: COW - 0.0 0.737942 0.0 -> 0 1.08683588072 0
% INFO    : Updated Generator Cost: NUC - 0.0 1.188357 0.0 -> 0 0.164633943709 0
% INFO    : Updated Generator Cost: COW - 0.0 1.11809 0.0 -> 0 0.939700871266 0
% INFO    : Updated Generator Cost: COW - 0.0 0.685077 0.0 -> 0 0.749409806885 0
% INFO    : Updated Generator Cost: COW - 0.0 0.217202 0.0 -> 0 0.996642511165 0
% INFO    : Updated Generator Cost: NUC - 0.0 0.550879 0.0 -> 0 0.199950325555 0
% INFO    : Updated Generator Cost: NG - 0.0 0.881717 0.0 -> 0 0.920202221258 0
% INFO    : Updated Generator Cost: COW - 0.0 0.326811 0.0 -> 0 1.0376659935 0
% INFO    : Updated Generator Cost: COW - 0.0 1.294938 0.0 -> 0 0.714557472794 0
% INFO    : Updated Generator Cost: COW - 0.0 0.214075 0.0 -> 0 0.57920260531 0
% INFO    : Updated Generator Cost: COW - 0.0 0.67437 0.0 -> 0 1.18409677903 0
% INFO    : Updated Generator Cost: COW - 0.0 0.843337 0.0 -> 0 0.380434725076 0
% INFO    : Updated Generator Cost: COW - 0.0 0.780507 0.0 -> 0 1.31938135322 0
% INFO    : Updated Generator Cost: COW - 0.0 0.8963 0.0 -> 0 1.24804247891 0
% INFO    : Updated Generator Cost: NG - 0.0 1.192504 0.0 -> 0 1.18312474959 0
% INFO    : Updated Generator Cost: COW - 0.0 0.197892 0.0 -> 0 0.935899128121 0
% INFO    : Updated Generator Cost: COW - 0.0 0.917884 0.0 -> 0 0.830398047774 0
% INFO    : Updated Generator Cost: NG - 0.0 0.693054 0.0 -> 0 1.10882002113 0
% INFO    : Updated Generator Cost: COW - 0.0 0.972377 0.0 -> 0 0.255347409147 0
% INFO    : Updated Generator Cost: COW - 0.0 0.703284 0.0 -> 0 0.8379519163 0
% INFO    : Updated Generator Cost: NG - 0.0 0.784566 0.0 -> 0 1.21036234904 0
% INFO    : Updated Generator Cost: COW - 0.0 0.20201 0.0 -> 0 0.524755776482 0
% INFO    : Updated Generator Cost: NG - 0.0 0.547247 0.0 -> 0 0.76414619391 0
% INFO    : Updated Generator Cost: NG - 0.0 1.170062 0.0 -> 0 0.712972522852 0
% INFO    : Updated Generator Cost: COW - 0.0 0.646308 0.0 -> 0 0.51141814862 0
% INFO    : Updated Generator Cost: NG - 0.0 0.0 0.0 -> 0 0.914718995647 0
% INFO    : Updated Generator Cost: COW - 0.0 0.603325 0.0 -> 0 0.66325354215 0
% INFO    : Updated Generator Cost: NG - 0.0 0.941578 0.0 -> 0 1.0513982537 0
% INFO    : Updated Generator Cost: NG - 0.0 0.701512 0.0 -> 0 1.13402333626 0
% INFO    : Updated Generator Cost: COW - 0.0 1.117037 0.0 -> 0 1.27391479989 0
% INFO    : Updated Generator Cost: COW - 0.0 0.777734 0.0 -> 0 0.83399238489 0
% INFO    : Updated Generator Cost: COW - 0.0 0.793837 0.0 -> 0 0.538577490978 0
% INFO    : Updated Generator Cost: COW - 0.0 0.494775 0.0 -> 0 0.858706150979 0
% INFO    : Updated Generator Cost: NG - 0.0 1.261632 0.0 -> 0 1.10124229711 0
% INFO    : Updated Generator Cost: COW - 0.0 1.307594 0.0 -> 0 0.573781155991 0
% INFO    : Updated Generator Cost: NG - 0.0 1.062217 0.0 -> 0 1.30252279221 0
% INFO    : Updated Generator Cost: COW - 0.0 6.429936 0.0 -> 0 0.468285560955 0
% INFO    : Updated Generator Cost: COW - 0.0 0.545667 0.0 -> 0 1.1522711889 0
% INFO    : Updated Generator Cost: COW - 0.0 0.943798 0.0 -> 0 0.95416679018 0
% INFO    : 
% INFO    : === Voltage Setpoint Replacement Notes ===
% INFO    : Bus 1	: V=1.1, theta=27.09981 -> V=1.07816, theta=-10.88827
% INFO    : Bus 2	: V=1.1, theta=26.83211 -> V=1.1, theta=-8.76803
% INFO    : Bus 3	: V=1.09038, theta=19.42766 -> V=1.09245, theta=-10.78651
% INFO    : Bus 4	: V=1.1, theta=13.34583 -> V=1.1, theta=-8.60518
% INFO    : Bus 5	: V=1.1, theta=7.77868 -> V=1.1, theta=-7.03077
% INFO    : Bus 6	: V=1.09911, theta=6.34844 -> V=1.09935, theta=-7.82002
% INFO    : Bus 7	: V=1.1, theta=11.86565 -> V=1.09092, theta=-11.56487
% INFO    : Bus 8	: V=1.0966, theta=11.80744 -> V=1.09037, theta=-11.58113
% INFO    : Bus 9	: V=1.1, theta=4.95232 -> V=1.09438, theta=-8.5619
% INFO    : Bus 10	: V=1.09704, theta=4.35996 -> V=1.08637, theta=-9.94103
% INFO    : Bus 11	: V=1.1, theta=3.14549 -> V=1.09103, theta=-6.10767
% INFO    : Bus 12	: V=1.1, theta=4.97814 -> V=1.08596, theta=4.04838
...